Circuit: * C:\Users\a9300\OneDrive\Documentos\maestria\microondas 1\proyectos\simulador 1\proyecto_parametros\ejemplos LTspice\ejemplos version_2\ejemplo 1.asc

WARNING: Node N002 is floating.
WARNING: Node V1 is floating.

.OP point found by inspection.

Date: Tue Nov 22 13:11:52 2022
Total elapsed time: 0.022 seconds.

tnom = 27
temp = 27
method = trap
totiter = 0
traniter = 0
tranpoints = 0
accept = 0
rejected = 0
matrix size = 10
fillins = 0
solver = Normal

