Circuit: * C:\Users\a9300\OneDrive\Documentos\maestria\microondas 1\proyectos\simulador 1\proyecto_parametros\ejemplos LTspice\ejemplos version_2\ejemplo 2.asc

WARNING: Node V1 is floating.
WARNING: Node N001 is floating.

.OP point found by inspection.

Date: Thu Dec 15 20:31:51 2022
Total elapsed time: 0.069 seconds.

tnom = 27
temp = 27
method = trap
totiter = 0
traniter = 0
tranpoints = 0
accept = 0
rejected = 0
matrix size = 10
fillins = 0
solver = Normal

