Circuit: * C:\Users\Cristian\Desktop\ejemplos_LTspice\ejemplo1.asc

.OP point found by inspection.

Date: Thu Oct 20 13:08:27 2022
Total elapsed time: 0.014 seconds.

tnom = 27
temp = 27
method = trap
totiter = 0
traniter = 0
tranpoints = 0
accept = 0
rejected = 0
matrix size = 2
fillins = 0
solver = Normal

