Circuit: * C:\Users\Cristian\Desktop\ejemplos LTspice\ejemplo4.asc

WARNING: Node V2 is floating.

.OP point found by inspection.

Date: Mon Oct 17 13:06:47 2022
Total elapsed time: 0.033 seconds.

tnom = 27
temp = 27
method = trap
totiter = 0
traniter = 0
tranpoints = 0
accept = 0
rejected = 0
matrix size = 4
fillins = 0
solver = Normal

