Circuit: * C:\Users\Cristian\Desktop\ejemplos_LTspice\ejemplo7.asc

WARNING: Less than two connections to node V1.  This node is used by R2.
WARNING: Less than two connections to node V2.  This node is used by R3.
.OP point found by inspection.

Date: Fri Oct 21 01:23:15 2022
Total elapsed time: 0.040 seconds.

tnom = 27
temp = 27
method = trap
totiter = 0
traniter = 0
tranpoints = 0
accept = 0
rejected = 0
matrix size = 4
fillins = 0
solver = Normal

