Circuit: * C:\Users\Cristian\Desktop\ejemplos LTspice\ejemplo2.asc

.OP point found by inspection.

Date: Sun Oct 16 05:24:45 2022
Total elapsed time: 0.038 seconds.

tnom = 27
temp = 27
method = trap
totiter = 0
traniter = 0
tranpoints = 0
accept = 0
rejected = 0
matrix size = 4
fillins = 0
solver = Normal

