Circuit: * C:\Users\Cristian\Desktop\ejemplos_LTspice\ejemplo3.asc

Fatal Error: This circuit does not have a conduction path to ground!
   Please flag a node as ground.
