Circuit: * C:\Users\a9300\OneDrive\Documentos\maestria\microondas 1\proyectos\simulador\ejemplos LTspice\ejemplo1.asc

.OP point found by inspection.

Date: Mon Nov 21 12:48:52 2022
Total elapsed time: 0.001 seconds.

tnom = 27
temp = 27
method = trap
totiter = 0
traniter = 0
tranpoints = 0
accept = 0
rejected = 0
matrix size = 2
fillins = 0
solver = Normal

